
     RDKit          3D

 53 55  0  0  0  0  0  0  0  0999 V2000
    0.7876   -0.9513    1.3252 C   0  0  0  0  0  0  0  0  0  0  0  0
   -0.6627   -0.5201    1.5775 C   0  0  0  0  0  0  0  0  0  0  0  0
   -1.3380   -0.0914    0.2693 C   0  0  0  0  0  0  0  0  0  0  0  0
   -0.5504    1.0366   -0.4232 C   0  0  0  0  0  0  0  0  0  0  0  0
    0.9095    1.0977    0.0367 C   0  0  0  0  0  0  0  0  0  0  0  0
    1.4360   -0.2607    0.1929 N   0  0  0  0  0  0  0  0  0  0  0  0
    2.9022   -0.2981    0.3496 C   0  0  0  0  0  0  0  0  0  0  0  0
    3.6584    0.0194   -0.9515 C   0  0  0  0  0  0  0  0  0  0  0  0
    5.1505   -0.1482   -0.7808 C   0  0  0  0  0  0  0  0  0  0  0  0
    5.9331    0.9088   -0.2969 C   0  0  0  0  0  0  0  0  0  0  0  0
    7.3082    0.7469   -0.1212 C   0  0  0  0  0  0  0  0  0  0  0  0
    7.9120   -0.4723   -0.4232 C   0  0  0  0  0  0  0  0  0  0  0  0
    7.1416   -1.5312   -0.9001 C   0  0  0  0  0  0  0  0  0  0  0  0
    5.7664   -1.3716   -1.0766 C   0  0  0  0  0  0  0  0  0  0  0  0
   -2.7787    0.2323    0.4402 N   0  0  0  0  0  0  0  0  0  0  0  0
   -3.7096   -0.6802   -0.1400 C   0  0  0  0  0  0  0  0  0  0  0  0
   -3.5793   -1.0620   -1.4818 C   0  0  0  0  0  0  0  0  0  0  0  0
   -4.4772   -1.9657   -2.0551 C   0  0  0  0  0  0  0  0  0  0  0  0
   -5.5061   -2.5075   -1.2887 C   0  0  0  0  0  0  0  0  0  0  0  0
   -5.6337   -2.1514    0.0518 C   0  0  0  0  0  0  0  0  0  0  0  0
   -4.7371   -1.2454    0.6244 C   0  0  0  0  0  0  0  0  0  0  0  0
   -3.1518    1.3287    1.2298 C   0  0  0  0  0  0  0  0  0  0  0  0
   -2.3383    1.9606    1.9093 O   0  0  0  0  0  0  0  0  0  0  0  0
   -4.6099    1.7790    1.1731 C   0  0  0  0  0  0  0  0  0  0  0  0
   -4.7749    3.2282    1.6089 C   0  0  0  0  0  0  0  0  0  0  0  0
    0.8074   -2.0279    1.1166 H   0  0  0  0  0  0  0  0  0  0  0  0
    1.3454   -0.7987    2.2588 H   0  0  0  0  0  0  0  0  0  0  0  0
   -0.6601    0.3001    2.3036 H   0  0  0  0  0  0  0  0  0  0  0  0
   -1.2171   -1.3435    2.0437 H   0  0  0  0  0  0  0  0  0  0  0  0
   -1.2653   -0.9690   -0.3880 H   0  0  0  0  0  0  0  0  0  0  0  0
   -0.5895    0.8669   -1.5075 H   0  0  0  0  0  0  0  0  0  0  0  0
   -1.0055    2.0204   -0.2651 H   0  0  0  0  0  0  0  0  0  0  0  0
    1.4629    1.6638   -0.7195 H   0  0  0  0  0  0  0  0  0  0  0  0
    0.9950    1.6617    0.9748 H   0  0  0  0  0  0  0  0  0  0  0  0
    3.2212    0.3790    1.1534 H   0  0  0  0  0  0  0  0  0  0  0  0
    3.1962   -1.3101    0.6613 H   0  0  0  0  0  0  0  0  0  0  0  0
    3.3094   -0.6372   -1.7591 H   0  0  0  0  0  0  0  0  0  0  0  0
    3.4609    1.0436   -1.2880 H   0  0  0  0  0  0  0  0  0  0  0  0
    5.4755    1.8653   -0.0546 H   0  0  0  0  0  0  0  0  0  0  0  0
    7.9084    1.5725    0.2521 H   0  0  0  0  0  0  0  0  0  0  0  0
    8.9827   -0.5975   -0.2863 H   0  0  0  0  0  0  0  0  0  0  0  0
    7.6116   -2.4827   -1.1342 H   0  0  0  0  0  0  0  0  0  0  0  0
    5.1769   -2.2078   -1.4462 H   0  0  0  0  0  0  0  0  0  0  0  0
   -2.7960   -0.6379   -2.1051 H   0  0  0  0  0  0  0  0  0  0  0  0
   -4.3728   -2.2443   -3.1007 H   0  0  0  0  0  0  0  0  0  0  0  0
   -6.2030   -3.2133   -1.7337 H   0  0  0  0  0  0  0  0  0  0  0  0
   -6.4239   -2.5885    0.6571 H   0  0  0  0  0  0  0  0  0  0  0  0
   -4.8269   -1.0269    1.6849 H   0  0  0  0  0  0  0  0  0  0  0  0
   -5.2033    1.1544    1.8457 H   0  0  0  0  0  0  0  0  0  0  0  0
   -4.9907    1.6810    0.1515 H   0  0  0  0  0  0  0  0  0  0  0  0
   -4.4623    3.3665    2.6492 H   0  0  0  0  0  0  0  0  0  0  0  0
   -4.1721    3.8961    0.9846 H   0  0  0  0  0  0  0  0  0  0  0  0
   -5.8227    3.5330    1.5261 H   0  0  0  0  0  0  0  0  0  0  0  0
  1  2  1  0
  2  3  1  0
  3  4  1  0
  4  5  1  0
  5  6  1  0
  6  7  1  0
  7  8  1  0
  8  9  1  0
  9 10  2  0
 10 11  1  0
 11 12  2  0
 12 13  1  0
 13 14  2  0
  3 15  1  0
 15 16  1  0
 16 17  2  0
 17 18  1  0
 18 19  2  0
 19 20  1  0
 20 21  2  0
 15 22  1  0
 22 23  2  0
 22 24  1  0
 24 25  1  0
  6  1  1  0
 14  9  1  0
 21 16  1  0
  1 26  1  0
  1 27  1  0
  2 28  1  0
  2 29  1  0
  3 30  1  0
  4 31  1  0
  4 32  1  0
  5 33  1  0
  5 34  1  0
  7 35  1  0
  7 36  1  0
  8 37  1  0
  8 38  1  0
 10 39  1  0
 11 40  1  0
 12 41  1  0
 13 42  1  0
 14 43  1  0
 17 44  1  0
 18 45  1  0
 19 46  1  0
 20 47  1  0
 21 48  1  0
 24 49  1  0
 24 50  1  0
 25 51  1  0
 25 52  1  0
 25 53  1  0
M  END
$$$$
